*Heading
** Job name: Job-1 Model name: Model-1
** Generated by: Abaqus/CAE 2024
*Preprint, echo=NO, model=NO, history=NO, contact=NO
**
** PARTS
**
*Part, name=Part-1
*Node
      1,           1.,           1.,           1.
      2,           1.,           0.,           1.
      3,           1.,           0.,           0.
      4,           1.,           1.,           0.
      5,           0.,           0.,           1.
      6,           0.,           0.,           0.
      7,           0.,           1.,           0.
      8,           0.,           1.,           1.
      9,           1.,        0.875,           1.
     10,           1.,         0.75,           1.
     11,           1.,        0.625,           1.
     12,           1.,          0.5,           1.
     13,           1.,        0.375,           1.
     14,           1.,         0.25,           1.
     15,           1.,        0.125,           1.
     16,           1.,           0.,        0.875
     17,           1.,           0.,         0.75
     18,           1.,           0.,        0.625
     19,           1.,           0.,          0.5
     20,           1.,           0.,        0.375
** ... 812 like lines cut
*Element, type=C3D4
   1, 387, 388, 389, 390
   2, 388, 391, 389, 390
   3, 392, 388, 391, 389
   4, 390, 393, 394, 387
   5, 395, 396, 397, 398
   6, 399, 388, 387, 393
   7, 400, 384,  62, 383
   8, 401, 388, 393, 402
   9, 403, 224, 232, 231
  10, 404, 402, 393, 405
  11, 388, 393, 402, 390
  12, 406, 407, 408, 409
  13, 406, 410, 411, 412
  14, 406, 394, 413, 407
  15, 406, 414, 407, 413
  16, 406, 408, 407, 414
  17, 406, 415, 416, 417
  18, 418, 419, 420, 421
  19, 418, 401, 422, 393
  20, 418, 423, 422, 401
** ... 3691 like lines cut
*Nset, nset=Set-1, generate
   1,  832,    1
*Elset, elset=Set-1, generate
    1,  3711,     1
** Section: Section-1
*Solid Section, elset=Set-1, controls=EC-1, material=Material-1
,
*End Part
**  
**
** ASSEMBLY
**
*Assembly, name=Assembly
**  
*Instance, name=Part-1-1, part=Part-1
*End Instance
**  
*Nset, nset=Set-1, instance=Part-1-1
   3,   4,   6,   7,  23,  24,  25,  26,  27,  28,  29,  51,  52,  53,  54,  55
  56,  57,  58,  59,  60,  61,  62,  63,  64,  65,  66,  67,  68,  69,  70,  71
 191, 192, 193, 194, 195, 196, 197, 198, 199, 200, 201, 202, 203, 204, 205, 206
 207, 208, 209, 210, 211, 212, 213, 214, 215, 216, 217, 218, 219, 220, 221, 222
 223, 224, 225, 226, 227, 228, 229, 230, 231, 232, 233, 234, 235, 236, 237, 238
 239,
*Elset, elset=Set-1, instance=Part-1-1
    9,   96,  262,  354,  363,  376,  450, 1384, 1387, 1399, 1513, 1520, 1583, 1611, 1630, 1773
 1779, 1865, 1872, 1881, 1882, 1928, 1933, 1990, 2049, 2051, 2075, 2082, 2129, 2262, 2312, 2326
 2356, 2364, 2380, 2415, 2431, 2439, 2466, 2472, 2473, 2476, 2505, 2512, 2516, 2539, 2546, 2547
 2549, 2551, 2555, 2559, 2580, 2581, 2593, 2600, 2607, 2615, 2621, 2624, 2627, 2637, 2639, 2646
 2675, 2682, 2683, 2685, 2687, 2690, 2695, 2703, 2712, 2726, 2727, 2730, 2738, 2741, 2755, 2761
 2767, 2789, 2793, 2799, 2805, 2806, 2816, 2821, 2822, 2863, 2867, 2870, 2871, 2874, 2929, 2934
 2938, 2946, 2954, 3009, 3012, 3067, 3075, 3100, 3150, 3156, 3167, 3174, 3211, 3234, 3251, 3267
 3271, 3338, 3345, 3371, 3402, 3421, 3433, 3465, 3506, 3553, 3577, 3601, 3623, 3643, 3664, 3698
*Nset, nset=Set-2, instance=Part-1-1
   1,   2,   5,   8,   9,  10,  11,  12,  13,  14,  15,  37,  38,  39,  40,  41
  42,  43,  72,  73,  74,  75,  76,  77,  78,  86,  87,  88,  89,  90,  91,  92
 289, 290, 291, 292, 293, 294, 295, 296, 297, 298, 299, 300, 301, 302, 303, 304
 305, 306, 307, 308, 309, 310, 311, 312, 313, 314, 315, 316, 317, 318, 319, 320
 321, 322, 323, 324, 325, 326, 327, 328, 329, 330, 331, 332, 333, 334, 335, 336
 337,
*Elset, elset=Set-2, instance=Part-1-1
  214,  222,  531,  604,  617,  673,  961, 1304, 1440, 1597, 1620, 1633, 1659, 1684, 1704, 1706
 1760, 1799, 1907, 1943, 1957, 2030, 2116, 2124, 2136, 2165, 2170, 2171, 2175, 2182, 2204, 2208
 2215, 2233, 2277, 2458, 2489, 2636, 2669, 2809, 2813, 2815, 2835, 2850, 2909, 2924, 2933, 2936
 2947, 2950, 2958, 2967, 2968, 2987, 2993, 3006, 3017, 3031, 3095, 3136, 3163, 3201, 3270, 3305
 3316, 3333, 3354, 3358, 3376, 3381, 3385, 3392, 3394, 3403, 3405, 3410, 3411, 3416, 3426, 3430
 3437, 3443, 3451, 3456, 3458, 3462, 3463, 3466, 3472, 3485, 3489, 3499, 3501, 3503, 3505, 3507
 3509, 3513, 3520, 3528, 3533, 3538, 3541, 3556, 3557, 3562, 3563, 3567, 3569, 3579, 3580, 3581
 3591, 3596, 3598, 3599, 3607, 3608, 3612, 3614, 3628, 3640, 3665, 3666, 3668, 3672, 3700, 3711
*Nset, nset=Set-3, instance=Part-1-1
   3,   4,   6,   7,  23,  24,  25,  26,  27,  28,  29,  51,  52,  53,  54,  55
  56,  57,  58,  59,  60,  61,  62,  63,  64,  65,  66,  67,  68,  69,  70,  71
 191, 192, 193, 194, 195, 196, 197, 198, 199, 200, 201, 202, 203, 204, 205, 206
 207, 208, 209, 210, 211, 212, 213, 214, 215, 216, 217, 218, 219, 220, 221, 222
 223, 224, 225, 226, 227, 228, 229, 230, 231, 232, 233, 234, 235, 236, 237, 238
 239,
*Elset, elset=Set-3, instance=Part-1-1
    9,   96,  262,  354,  363,  376,  450, 1384, 1387, 1399, 1513, 1520, 1583, 1611, 1630, 1773
 1779, 1865, 1872, 1881, 1882, 1928, 1933, 1990, 2049, 2051, 2075, 2082, 2129, 2262, 2312, 2326
 2356, 2364, 2380, 2415, 2431, 2439, 2466, 2472, 2473, 2476, 2505, 2512, 2516, 2539, 2546, 2547
 2549, 2551, 2555, 2559, 2580, 2581, 2593, 2600, 2607, 2615, 2621, 2624, 2627, 2637, 2639, 2646
 2675, 2682, 2683, 2685, 2687, 2690, 2695, 2703, 2712, 2726, 2727, 2730, 2738, 2741, 2755, 2761
 2767, 2789, 2793, 2799, 2805, 2806, 2816, 2821, 2822, 2863, 2867, 2870, 2871, 2874, 2929, 2934
 2938, 2946, 2954, 3009, 3012, 3067, 3075, 3100, 3150, 3156, 3167, 3174, 3211, 3234, 3251, 3267
 3271, 3338, 3345, 3371, 3402, 3421, 3433, 3465, 3506, 3553, 3577, 3601, 3623, 3643, 3664, 3698
*End Assembly
** 
** ELEMENT CONTROLS
** 
*Section Controls, name=EC-1
1., 1., 1., 0., 0.
** 
** MATERIALS
** 
*Material, name=Material-1
*Density
1.,
*Elastic
21000., 0.3
** ----------------------------------------------------------------
** 
** STEP: Step-1
** 
*Step, name=Step-1, nlgeom=NO, perturbation
*Frequency, eigensolver=Lanczos, sim, acoustic coupling=on, normalization=mass
10, , , , , 
** 
** BOUNDARY CONDITIONS
** 
** Name: BC-1 Type: Displacement/Rotation
*Boundary
Set-3, 1, 1
Set-3, 2, 2
Set-3, 3, 3
Set-3, 4, 4
Set-3, 5, 5
Set-3, 6, 6
** 
** OUTPUT REQUESTS
** 
*Restart, write, frequency=0
** 
** FIELD OUTPUT: F-Output-1
** 
*Output, field
*Node Output
U, 
** 
** HISTORY OUTPUT: H-Output-1
** 
*Output, history
*Energy Output
ALLKE, ALLSE
*End Step
