1

   Abaqus 2024                                  Date 05-12ÔÂ-2025   Time 12:25:17
   For use by WhiteDeath under license from Dassault Systemes or its subsidiary.



                         The Abaqus Software is a product of:

                           Dassault Systemes SIMULIA Corp.
                           1301 Atwood Avenue, Suite 101W
                              Johnston, RI 02919, USA
 


                   The Abaqus Software is available only under license
                   from Dassault Systemes or its subsidiary and may be
                   used or reproduced only in accordance with the terms
                   of such license.
 
                          On machine DESKTOP-U2L1L0L 
                          you are authorized to run
                          Abaqus/Foundation until 31-Dec-2055

                          Your site id is:  


 
                    For assistance or any other information you may
                    obtain contact information for your local office
                    from the world wide web at:

                      https://www.3ds.com/products-services/simulia/services-support/

 
                * * * * * * * * * * * * * * * * * * * * * * * * * * * * * * 
                *                                                         * 
                *                   *****************                     * 
                *                   *  N O T I C E  *                     * 
                *                   *****************                     * 
                *                                                         * 
                *                                                         * 
                *                       Abaqus 2024                       * 
                *                                                         * 
                *       BUILD ID: 2023_09_21-20.55.25 RELr426 190762      * 
                *                                                         * 
                *                                                         * 
                *  Please make sure you are using                         * 
                *  release Abaqus 2024 manuals                            * 
                *  plus the notes accompanying this release.              * 
                *                                                         * 
                *                                                         * 
                *                                                         * 
                *                                                         * 
                * * * * * * * * * * * * * * * * * * * * * * * * * * * * * * 


 



     PROCESSING PART, INSTANCE, AND ASSEMBLY INFORMATION
   *******************************************************


     END PROCESSING PART, INSTANCE, AND ASSEMBLY INFORMATION
   ***********************************************************




     OPTIONS BEING PROCESSED
   ***************************


  *Heading
  *Element, type=C3D4
  *Elset, elset=ASSEMBLY_PART-1-1_SET-6
  *Elset, elset=ASSEMBLY_PART-1-1_SET-7
  *Elset, elset=ASSEMBLY_SET-1
  *material, name=MATERIAL-1
  *density
  *elastic
  *material, name=MATERIAL-2
  *density
  *elastic
  *solidsection, elset=ASSEMBLY_PART-1-1_SET-7, material=MATERIAL-2
  *solidsection, elset=ASSEMBLY_PART-1-1_SET-6, material=MATERIAL-1
  *solidsection, elset=ASSEMBLY_PART-1-1_SET-7, material=MATERIAL-2
  *solidsection, elset=ASSEMBLY_PART-1-1_SET-6, material=MATERIAL-1
  *boundary
  *boundary
  *output, field
  *output, history
  *output, field
  *output, history
  *output, field
  *output, history
  *Step, name=Step-1, nlgeom=NO, perturbation
  *frequency, eigensolver=LANCZOS, normalization=MASS, sim=YES, acousticcoupling=ON
  *output, field
  *output, history
  *Step, name=Step-1, nlgeom=NO, perturbation
  *Step, name=Step-1, nlgeom=NO, perturbation
  *frequency, eigensolver=LANCZOS, normalization=MASS, sim=YES, acousticcoupling=ON
  *frequency, eigensolver=LANCZOS, normalization=MASS, sim=YES, acousticcoupling=ON
  *boundary
  *output, field
  *nodeoutput
  *output, history
  *energyoutput
  *endstep
  *Step, name=Step-1, nlgeom=NO, perturbation
  *frequency, eigensolver=LANCZOS, normalization=MASS, sim=YES, acousticcoupling=ON
  *frequency, eigensolver=LANCZOS, normalization=MASS, sim=YES, acousticcoupling=ON
  *boundary
  *endstep

 ***WARNING: Boundary conditions are specified on inactive dof 4 at 81 nodes. 
             The nodes have been identified in node set WarnNodeBCInactiveDof4.

 ***WARNING: Boundary conditions are specified on inactive dof 5 at 81 nodes. 
             The nodes have been identified in node set WarnNodeBCInactiveDof5.

 ***WARNING: Boundary conditions are specified on inactive dof 6 at 81 nodes. 
             The nodes have been identified in node set WarnNodeBCInactiveDof6.



                            P R O B L E M   S I Z E


          NUMBER OF ELEMENTS IS                                  7514
          NUMBER OF NODES IS                                     1597
          NUMBER OF NODES DEFINED BY THE USER                    1597
          TOTAL NUMBER OF VARIABLES IN THE MODEL                 4791
          (DEGREES OF FREEDOM PLUS MAX NO. OF ANY LAGRANGE MULTIPLIER
           VARIABLES. INCLUDE *PRINT,SOLVE=YES TO GET THE ACTUAL NUMBER.)



                              END OF USER INPUT PROCESSING



     JOB TIME SUMMARY
       USER TIME (SEC)      =     0.20    
       SYSTEM TIME (SEC)    =      0.0    
       TOTAL CPU TIME (SEC) =     0.20    
       WALLCLOCK TIME (SEC) =            0
1

   Abaqus 2024                                  Date 05-12ÔÂ-2025   Time 12:25:20
   For use by WhiteDeath under license from Dassault Systemes or its subsidiary.

                                                                                               STEP    1  INCREMENT    1
                                                                                          TIME COMPLETED IN THIS STEP   0.00    


                        S T E P       1     C A L C U L A T I O N   O F   E I G E N V A L U E S

                                            F O R   N A T U R A L   F R E Q U E N C I E S



                                                                                          

     THE LANCZOS EIGENSOLVER IS USED FOR THIS ANALYSIS
     SYSTEM DATA WILL BE WRITTEN TO THE .SIM FILE

     Abaqus WILL COMPUTE UNCOUPLED
      STRUCTURAL AND ACOUSTIC MODES
     ALL EIGENVALUES IN THE SPECIFIED RANGE WILL BE EXTRACTED
     HIGHEST FREQUENCY OF INTEREST                   10.000    
     MAXIMUM NUMBER OF STEPS WITHIN RUN               35
     BLOCK SIZE FOR LANCZOS PROCEDURE                  7
     THE EIGENVECTORS ARE SCALED SO THAT 
      THE GENERALIZED MASS IN EACH VECTOR IS UNITY

     THIS IS A LINEAR PERTURBATION STEP.
     ALL LOADS ARE DEFINED AS CHANGE IN LOAD TO THE REFERENCE STATE



                    TOTAL MASS OF MODEL

                       3.000000    


                    LOCATION OF THE CENTER OF MASS OF THE MODEL

                      0.5000000          0.5000000          0.8333333    


                    MOMENTS OF INERTIA ABOUT THE ORIGIN
                           I(XX)               I(YY)               I(ZZ)

                       4.013020           4.012952           2.013157    


                    PRODUCTS OF INERTIA ABOUT THE ORIGIN
                           I(XY)               I(XZ)               I(YZ)

                     -0.7500416          -1.250027          -1.249985    


                    MOMENTS OF INERTIA ABOUT THE CENTER OF MASS
                           I(XX)               I(YY)               I(ZZ)

                       1.179687           1.179619          0.5131568    


                    PRODUCTS OF INERTIA ABOUT THE CENTER OF MASS
                           I(XY)               I(XZ)               I(YZ)

                     -4.1561775E-05     -2.7318726E-05      1.4926296E-05
  
                   M E M O R Y   E S T I M A T E
  
 PROCESS      FLOATING PT       MINIMUM MEMORY        MEMORY TO
              OPERATIONS           REQUIRED          MINIMIZE I/O
             PER ITERATION           (MB)               (MB)
  
     1          2.72E+08               22                 68
  
 NOTE:
      (1) SINCE ABAQUS DOES NOT PRE-ALLOCATE MEMORY AND ONLY ALLOCATES MEMORY AS NEEDED DURING THE ANALYSIS,
          THE MEMORY REQUIREMENT PRINTED HERE CAN ONLY BE VIEWED AS A GENERAL GUIDELINE BASED ON THE BEST
          KNOWLEDGE AVAILABLE AT THE BEGINNING OF A STEP BEFORE THE SOLUTION PROCESS HAS BEGUN.
      (2) THE ESTIMATE IS NORMALLY UPDATED AT THE BEGINNING OF EVERY STEP. IT IS THE MAXIMUM VALUE OF THE
          ESTIMATE FROM THE CURRENT STEP TO THE LAST STEP OF THE ANALYSIS, WITH UNSYMMETRIC SOLUTION TAKEN
          INTO ACCOUNT IF APPLICABLE. 
      (3) SINCE THE ESTIMATE IS BASED ON THE ACTIVE DEGREES OF FREEDOM IN THE FIRST ITERATION OF THE 
          CURRENT STEP, THE MEMORY ESTIMATE MIGHT BE SIGNIFICANTLY DIFFERENT THAN ACTUAL USAGE FOR 
          PROBLEMS WITH SUBSTANTIAL CHANGES IN ACTIVE DEGREES OF FREEDOM BETWEEN STEPS (OR EVEN WITHIN
          THE SAME STEP). EXAMPLES ARE: PROBLEMS WITH SIGNIFICANT CONTACT CHANGES, PROBLEMS WITH MODEL
          CHANGE, PROBLEMS WITH BOTH STATIC STEP AND STEADY STATE DYNAMIC PROCEDURES WHERE ACOUSTIC 
          ELEMENTS WILL ONLY BE ACTIVATED IN THE STEADY STATE DYNAMIC STEPS.
      (4) FOR MULTI-PROCESS EXECUTION, THE ESTIMATED VALUE OF FLOATING POINT OPERATIONS FOR EACH PROCESS
          IS BASED ON AN INITIAL SCHEDULING OF OPERATIONS AND MIGHT NOT REFLECT THE ACTUAL FLOATING 
          POINT OPERATIONS COMPLETED ON EACH PROCESS. OPERATIONS ARE DYNAMICALLY BALANCED DURING EXECUTION, 
          SO THE ACTUAL BALANCE OF OPERATIONS BETWEEN PROCESSES IS EXPECTED TO BE BETTER THAN THE ESTIMATE
          PRINTED HERE.
      (5) THE UPPER LIMIT OF MEMORY THAT CAN BE ALLOCATED BY ABAQUS WILL IN GENERAL DEPEND ON THE VALUE OF
          THE "MEMORY" PARAMETER AND THE AMOUNT OF PHYSICAL MEMORY AVAILABLE ON THE MACHINE. PLEASE SEE
          THE "ABAQUS ANALYSIS USER'S MANUAL" FOR MORE DETAILS. THE ACTUAL USAGE OF MEMORY AND OF DISK
          SPACE FOR SCRATCH DATA WILL DEPEND ON THIS UPPER LIMIT AS WELL AS THE MEMORY REQUIRED TO MINIMIZE
          I/O. IF THE MEMORY UPPER LIMIT IS GREATER THAN THE MEMORY REQUIRED TO MINIMIZE I/O, THEN THE ACTUAL
          MEMORY USAGE WILL BE CLOSE TO THE ESTIMATED "MEMORY TO MINIMIZE I/O" VALUE, AND THE SCRATCH DISK
          USAGE WILL BE CLOSE-TO-ZERO; OTHERWISE, THE ACTUAL MEMORY USED WILL BE CLOSE TO THE PREVIOUSLY
          MENTIONED MEMORY LIMIT, AND THE SCRATCH DISK USAGE WILL BE ROUGHLY PROPORTIONAL TO THE DIFFERENCE
          BETWEEN THE ESTIMATED "MEMORY TO MINIMIZE I/O" AND THE MEMORY UPPER LIMIT. HOWEVER ACCURATE
          ESTIMATE OF THE SCRATCH DISK SPACE IS NOT POSSIBLE.
      (6) USING "*RESTART, WRITE" CAN GENERATE A LARGE AMOUNT OF DATA WRITTEN IN THE WORK DIRECTORY.


                              E I G E N V A L U E    O U T P U T     

 MODE NO      EIGENVALUE              FREQUENCY         GENERALIZED MASS   COMPOSITE MODAL DAMPING            
                             (RAD/TIME)   (CYCLES/TIME)


       1       5.3999         2.3238        0.36984         1.0000         0.0000    
       2       5.4099         2.3259        0.37018         1.0000         0.0000    
       3       25.165         5.0165        0.79840         1.0000         0.0000    
       4       74.956         8.6577         1.3779         1.0000         0.0000    
       5       102.30         10.115         1.6098         1.0000         0.0000    
       6       102.44         10.121         1.6108         1.0000         0.0000    
       7       351.61         18.751         2.9844         1.0000         0.0000    
       8       536.40         23.160         3.6861         1.0000         0.0000    
       9       536.73         23.167         3.6872         1.0000         0.0000    
      10       631.36         25.127         3.9991         1.0000         0.0000    
      11       802.95         28.336         4.5099         1.0000         0.0000    
      12       805.10         28.374         4.5159         1.0000         0.0000    
      13       849.10         29.139         4.6377         1.0000         0.0000    
      14       898.76         29.979         4.7714         1.0000         0.0000    
      15       921.86         30.362         4.8323         1.0000         0.0000    
      16       935.47         30.586         4.8678         1.0000         0.0000    
      17       1047.7         32.368         5.1514         1.0000         0.0000    
      18       1049.9         32.402         5.1569         1.0000         0.0000    
      19       1071.7         32.736         5.2101         1.0000         0.0000    
      20       1370.2         37.016         5.8913         1.0000         0.0000    
      21       1374.5         37.074         5.9006         1.0000         0.0000    
      22       1394.6         37.345         5.9436         1.0000         0.0000    
      23       1412.6         37.585         5.9818         1.0000         0.0000    
      24       1442.2         37.976         6.0441         1.0000         0.0000    
      25       1457.4         38.176         6.0759         1.0000         0.0000    
      26       1468.5         38.322         6.0991         1.0000         0.0000    
      27       1594.8         39.935         6.3559         1.0000         0.0000    
      28       1733.8         41.638         6.6270         1.0000         0.0000    
      29       1737.6         41.684         6.6342         1.0000         0.0000    
      30       1742.6         41.745         6.6439         1.0000         0.0000    
      31       1755.3         41.896         6.6680         1.0000         0.0000    
      32       1797.4         42.396         6.7475         1.0000         0.0000    
      33       1830.4         42.784         6.8092         1.0000         0.0000    
      34       1839.2         42.886         6.8255         1.0000         0.0000    
      35       1928.2         43.911         6.9887         1.0000         0.0000    
      36       2077.0         45.574         7.2534         1.0000         0.0000    
      37       2081.3         45.622         7.2609         1.0000         0.0000    
      38       2123.7         46.083         7.3344         1.0000         0.0000    
      39       2154.9         46.421         7.3882         1.0000         0.0000    
      40       2324.0         48.208         7.6726         1.0000         0.0000    
      41       2357.6         48.555         7.7278         1.0000         0.0000    
      42       2418.3         49.176         7.8267         1.0000         0.0000    
      43       2482.7         49.827         7.9302         1.0000         0.0000    
      44       2516.0         50.160         7.9832         1.0000         0.0000    
      45       2549.9         50.496         8.0367         1.0000         0.0000    
      46       2556.0         50.557         8.0464         1.0000         0.0000    
      47       2596.1         50.952         8.1092         1.0000         0.0000    
      48       2602.9         51.018         8.1198         1.0000         0.0000    
      49       2775.9         52.687         8.3854         1.0000         0.0000    
      50       2805.0         52.962         8.4292         1.0000         0.0000    
      51       2885.6         53.718         8.5495         1.0000         0.0000    
      52       2981.6         54.604         8.6906         1.0000         0.0000    
      53       2991.5         54.695         8.7049         1.0000         0.0000    
      54       3013.8         54.898         8.7374         1.0000         0.0000    
      55       3111.6         55.782         8.8779         1.0000         0.0000    
      56       3116.0         55.821         8.8842         1.0000         0.0000    
      57       3122.8         55.882         8.8940         1.0000         0.0000    
      58       3170.8         56.310         8.9620         1.0000         0.0000    
      59       3188.2         56.465         8.9866         1.0000         0.0000    
      60       3199.4         56.563         9.0023         1.0000         0.0000    
      61       3350.3         57.882         9.2122         1.0000         0.0000    
      62       3409.2         58.388         9.2928         1.0000         0.0000    
      63       3469.0         58.898         9.3740         1.0000         0.0000    
      64       3515.4         59.291         9.4365         1.0000         0.0000    
      65       3534.4         59.451         9.4619         1.0000         0.0000    
      66       3551.0         59.590         9.4841         1.0000         0.0000    
      67       3635.2         60.292         9.5958         1.0000         0.0000    
      68       3672.6         60.602         9.6451         1.0000         0.0000    
      69       3687.9         60.728         9.6652         1.0000         0.0000    
      70       3815.5         61.770         9.8310         1.0000         0.0000    
      71       3884.0         62.322         9.9189         1.0000         0.0000    
      72       3892.4         62.389         9.9295         1.0000         0.0000    
      73       3905.0         62.490         9.9456         1.0000         0.0000    
      74       3910.8         62.536         9.9529         1.0000         0.0000    


          P A R T I C I P A T I O N   F A C T O R S

 MODE NO    X-COMPONENT    Y-COMPONENT    Z-COMPONENT    X-ROTATION     Y-ROTATION     Z-ROTATION 

       1      -1.3239       -0.61490       -1.95189E-04    0.27026       -0.58075        0.35453    
       2     -0.61497         1.3240       -8.15678E-05   -0.58115       -0.27049        0.96944    
       3      4.11693E-04    2.11377E-04    8.17669E-04    2.42478E-04    3.29885E-04    0.66674    
       4     -5.82767E-04    1.93205E-04    -1.6053       -0.80294        0.80141        5.86071E-04
       5      0.32266        0.65581       -4.50782E-04    -1.1304        0.55707        0.16647    
       6     -0.65575        0.32229        1.49330E-03   -0.55586        -1.1308        0.48903    
       7      4.95091E-04   -2.53733E-04    3.79641E-04    6.83139E-04    6.26602E-04   -0.16414    
       8     -0.33650        0.11030       -1.32882E-04   -0.19702       -0.60130        0.22334    
       9     -0.11014       -0.33635       -1.60048E-04    0.60129       -0.19648       -0.11359    
      10      8.85517E-04    3.82352E-04    9.70468E-04   -4.24045E-04    1.20556E-03   -2.58416E-04
      11     -0.16340       -1.59332E-02    1.42112E-03    3.42618E-02   -0.35347        7.10780E-02
      12      1.67697E-02   -0.16178       -1.09375E-03    0.34933        3.55070E-02   -8.87611E-02
      13      3.05250E-03    8.44908E-04   -1.10928E-02   -7.07752E-03    1.22590E-02   -0.12377    
      14     -3.08448E-04    8.61597E-04   -0.34961       -0.17651        0.17387        4.60128E-03
      15     -5.01572E-04   -7.87712E-04   -4.89131E-03   -8.78282E-04    1.50709E-03    2.37739E-03
      16     -1.40643E-05   -1.35277E-03    2.11181E-03    3.20373E-03   -7.61003E-04    1.40327E-03
      17      5.71502E-02   -6.25094E-02   -2.80056E-04    9.91563E-02    9.06070E-02   -6.03910E-02
      18     -6.33935E-02   -5.93057E-02   -4.47152E-04    9.47396E-02   -0.10052        2.54005E-03
      19      2.37821E-03   -6.92042E-03    2.42853E-04    1.08776E-02    3.55298E-03   -4.68597E-03
      20      8.85925E-02    9.54684E-02    8.60775E-04   -0.18204        0.17003        3.57651E-03
      21      9.35786E-02   -9.09144E-02   -3.13902E-03    0.17267        0.18001       -9.23143E-02
      22     -6.80490E-03    5.86616E-03   -5.97275E-02   -4.07545E-02    1.70560E-02    6.29134E-03
      23     -1.11308E-02    5.33595E-05   -4.61166E-03   -3.24870E-03   -1.81469E-02    4.97523E-03
      24      3.29493E-04   -5.21469E-03   -1.75573E-03    7.93213E-03    1.39974E-03   -2.24370E-03
      25     -7.60646E-02    8.08842E-02    5.03207E-03   -0.13634       -0.13691        7.85508E-02
      26     -8.30683E-02   -7.50767E-02    3.32496E-03    0.13388       -0.14448        4.50577E-03
      27      8.29423E-04    2.37364E-03    1.62029E-03   -3.56804E-03    4.29208E-04   -2.10979E-05
      28      5.96556E-02   -7.91493E-02   -3.27479E-02    0.18332        0.16500       -6.21084E-02
      29     -7.85431E-02   -6.09213E-02    2.90653E-02    0.16645       -0.21325        1.21833E-02
      30     -3.89322E-03   -1.11535E-02   -8.37005E-02   -1.49429E-02    3.28069E-02   -6.71433E-02
      31      2.23209E-02   -7.79775E-03    0.22572        0.13132       -6.03069E-02   -3.69038E-02
      32     -7.90710E-04    2.86947E-03    2.03998E-02    5.97877E-03   -1.13464E-02   -5.03498E-03
      33      2.24744E-02   -1.67184E-02   -1.88188E-02    1.86973E-02    4.86008E-02   -1.85797E-02
      34     -1.75538E-02   -2.23875E-02    4.30139E-03    4.17603E-02   -3.30083E-02    3.82773E-04
      35     -1.41573E-03    1.62434E-03    4.77883E-04   -2.90751E-03   -3.52161E-03    6.59633E-04
      36      3.11699E-02   -4.92400E-02   -3.85482E-03    0.11705        7.64066E-02   -4.05283E-02
      37     -4.82624E-02   -3.24012E-02    2.66183E-03    7.82777E-02   -0.11759        7.35182E-03
      38     -1.61616E-03   -3.90288E-03    2.08604E-03    1.00513E-02   -4.09146E-03   -1.37239E-03
      39      5.00612E-04    3.56714E-03    4.09677E-03   -6.31300E-03   -6.08241E-04   -3.01051E-04
      40      2.91084E-03   -4.28291E-04    4.88224E-03    1.16147E-02    6.86476E-03   -1.29592E-03
      41     -1.09045E-03    9.87208E-04    4.41562E-03   -2.47493E-03    3.96914E-03    9.21413E-04
      42     -8.50049E-05   -4.97301E-03    0.10750        6.37663E-02   -5.39881E-02   -6.72679E-04
      43      3.92486E-03    1.67869E-02   -3.35029E-03   -3.49871E-02    9.76578E-03    6.22179E-03
      44     -3.89689E-03    7.47612E-04   -2.20057E-03   -3.51694E-03   -6.34486E-03    1.96383E-03
      45     -0.11112        9.52693E-02    2.50397E-03   -0.18308       -0.21656        0.10229    
      46     -9.14020E-02   -0.10861       -1.08672E-03    0.20934       -0.17602       -8.13885E-03
      47      1.00476E-02   -3.21853E-02   -3.84861E-05    7.37198E-02    2.59405E-02   -2.23134E-02
      48     -4.11352E-02   -2.49700E-02    2.12830E-03    5.45656E-02   -9.12916E-02    7.17757E-03
      49      1.26983E-03   -1.52078E-03    4.06058E-03    4.54174E-03   -4.59078E-04   -1.76494E-02
      50      8.88250E-04    2.28155E-04    4.13671E-03    9.11365E-04   -8.34518E-04   -6.39519E-02
      51      8.86227E-04    2.14561E-03    0.15194        7.35355E-02   -7.28809E-02   -4.36278E-04
      52      8.49234E-04    1.41399E-04   -8.40311E-03    4.18474E-02   -1.73837E-02   -9.38826E-05
      53      4.78357E-05    1.45662E-03    8.82254E-03   -2.22511E-02   -5.22876E-02    1.15838E-03
      54      2.65540E-03    7.86626E-04   -7.30938E-03   -1.73559E-02    1.66735E-02   -3.63387E-05
      55     -5.20196E-03   -1.40105E-02    6.14833E-02    5.87206E-02   -4.44948E-02   -2.51623E-03
      56      1.30654E-02    1.95784E-03    0.10662        5.11907E-02   -2.38810E-02   -6.81830E-03
      57      1.31079E-02   -4.56194E-03   -7.70264E-02   -2.99714E-02    6.54127E-02   -9.78327E-03
      58     -1.12522E-03   -9.37347E-03    2.66535E-04    2.72455E-02    1.90782E-03    6.22890E-03
      59      1.18706E-02   -8.35785E-03   -5.83934E-03    2.19469E-02    3.51925E-02   -1.83548E-02
      60     -7.03640E-03   -8.71750E-03   -6.70102E-03    2.41393E-02   -2.11951E-02   -3.22307E-03
      61     -3.70898E-03    3.14414E-03   -3.36437E-02   -2.18824E-02    1.08597E-02    1.59493E-03
      62      3.42192E-05    3.13594E-03   -4.43818E-03   -7.98587E-03    3.56184E-03    1.29370E-03
      63     -1.93532E-03    1.19235E-03   -6.24147E-02   -3.39173E-02    2.77552E-02   -3.99333E-04
      64      6.90009E-03   -1.32819E-02   -2.12537E-02    1.29360E-02    2.28847E-02   -1.17226E-02
      65      8.39589E-02   -3.65393E-02   -5.78213E-03    6.40158E-02    0.15579       -6.13164E-02
      66      3.70477E-02    8.12672E-02   -2.36492E-03   -0.14969        6.95505E-02    2.17495E-02
      67     -1.06463E-02    1.86582E-02    1.12231E-03   -3.23702E-02   -2.03378E-02    1.36388E-02
      68     -9.94919E-03    2.03462E-02    1.24879E-03   -3.74843E-02   -2.04295E-02    1.37583E-02
      69     -2.56604E-02   -2.45067E-02   -2.14958E-03    4.42104E-02   -4.69966E-02    4.23510E-04
      70     -3.37104E-03   -3.32117E-04   -1.44145E-02   -5.05640E-03    1.12521E-03   -5.17209E-03
      71      1.98129E-03   -4.15765E-03   -2.50055E-02   -3.27647E-03    1.68680E-02   -3.13915E-02
      72      7.57576E-04    1.67866E-02   -3.94437E-03   -4.15256E-02    4.01235E-03    3.29036E-03
      73     -1.23383E-02    4.44846E-03   -6.95914E-02   -4.36918E-02    5.23591E-03    1.12396E-02
      74     -1.19206E-02    5.13575E-04    9.20822E-02    4.49052E-02   -7.42433E-02   -2.74196E-03


                    E F F E C T I V E   M A S S

 MODE NO    X-COMPONENT    Y-COMPONENT    Z-COMPONENT    X-ROTATION     Y-ROTATION     Z-ROTATION 

       1       1.7527        0.37810        3.80988E-08    7.30418E-02    0.33727        0.12569    
       2      0.37819         1.7531        6.65330E-09    0.33774        7.31650E-02    0.93982    
       3      1.69491E-07    4.46803E-08    6.68582E-07    5.87956E-08    1.08824E-07    0.44454    
       4      3.39618E-07    3.73280E-08     2.5769        0.64471        0.64225        3.43479E-07
       5      0.10411        0.43009        2.03205E-07     1.2778        0.31033        2.77114E-02
       6      0.43001        0.10387        2.22996E-06    0.30898         1.2788        0.23915    
       7      2.45115E-07    6.43806E-08    1.44127E-07    4.66680E-07    3.92630E-07    2.69407E-02
       8      0.11323        1.21660E-02    1.76576E-08    3.88188E-02    0.36157        4.98808E-02
       9      1.21313E-02    0.11313        2.56152E-08    0.36155        3.86026E-02    1.29023E-02
      10      7.84140E-07    1.46193E-07    9.41808E-07    1.79814E-07    1.45337E-06    6.67788E-08
      11      2.66987E-02    2.53866E-04    2.01957E-06    1.17387E-03    0.12494        5.05209E-03
      12      2.81223E-04    2.61712E-02    1.19629E-06    0.12203        1.26074E-03    7.87853E-03
      13      9.31777E-06    7.13870E-07    1.23051E-04    5.00913E-05    1.50283E-04    1.53180E-02
      14      9.51405E-08    7.42349E-07    0.12223        3.11547E-02    3.02300E-02    2.11717E-05
      15      2.51575E-07    6.20489E-07    2.39249E-05    7.71379E-07    2.27131E-06    5.65198E-06
      16      1.97804E-10    1.82997E-06    4.45974E-06    1.02639E-05    5.79125E-07    1.96915E-06
      17      3.26615E-03    3.90742E-03    7.84315E-08    9.83197E-03    8.20963E-03    3.64708E-03
      18      4.01874E-03    3.51716E-03    1.99945E-07    8.97559E-03    1.01041E-02    6.45186E-06
      19      5.65586E-06    4.78922E-05    5.89777E-08    1.18321E-04    1.26237E-05    2.19584E-05
      20      7.84863E-03    9.11422E-03    7.40933E-07    3.31396E-02    2.89113E-02    1.27914E-05
      21      8.75695E-03    8.26543E-03    9.85343E-06    2.98144E-02    3.24030E-02    8.52192E-03
      22      4.63066E-05    3.44118E-05    3.56738E-03    1.66093E-03    2.90907E-04    3.95810E-05
      23      1.23895E-04    2.84724E-09    2.12674E-05    1.05540E-05    3.29312E-04    2.47529E-05
      24      1.08566E-07    2.71930E-05    3.08258E-06    6.29187E-05    1.95928E-06    5.03417E-06
      25      5.78583E-03    6.54226E-03    2.53217E-05    1.85892E-02    1.87454E-02    6.17023E-03
      26      6.90034E-03    5.63652E-03    1.10554E-05    1.79225E-02    2.08744E-02    2.03019E-05
      27      6.87943E-07    5.63418E-06    2.62533E-06    1.27309E-05    1.84220E-07    4.45122E-10
      28      3.55879E-03    6.26461E-03    1.07243E-03    3.36054E-02    2.72265E-02    3.85746E-03
      29      6.16903E-03    3.71141E-03    8.44790E-04    2.77041E-02    4.54772E-02    1.48432E-04
      30      1.51572E-05    1.24400E-04    7.00577E-03    2.23291E-04    1.07629E-03    4.50822E-03
      31      4.98225E-04    6.08049E-05    5.09517E-02    1.72446E-02    3.63693E-03    1.36189E-03
      32      6.25222E-07    8.23387E-06    4.16153E-04    3.57457E-05    1.28740E-04    2.53510E-05
      33      5.05099E-04    2.79505E-04    3.54146E-04    3.49589E-04    2.36204E-03    3.45206E-04
      34      3.08135E-04    5.01199E-04    1.85020E-05    1.74392E-03    1.08955E-03    1.46515E-07
      35      2.00429E-06    2.63846E-06    2.28372E-07    8.45360E-06    1.24017E-05    4.35116E-07
      36      9.71565E-04    2.42458E-03    1.48596E-05    1.37016E-02    5.83797E-03    1.64255E-03
      37      2.32926E-03    1.04984E-03    7.08537E-06    6.12740E-03    1.38264E-02    5.40492E-05
      38      2.61196E-06    1.52325E-05    4.35158E-06    1.01028E-04    1.67400E-05    1.88344E-06
      39      2.50612E-07    1.27245E-05    1.67835E-05    3.98540E-05    3.69957E-07    9.06316E-08
      40      8.47296E-06    1.83433E-07    2.38363E-05    1.34901E-04    4.71249E-05    1.67941E-06
      41      1.18908E-06    9.74579E-07    1.94977E-05    6.12528E-06    1.57541E-05    8.49003E-07
      42      7.22583E-09    2.47309E-05    1.15557E-02    4.06614E-03    2.91471E-03    4.52497E-07
      43      1.54045E-05    2.81801E-04    1.12244E-05    1.22410E-03    9.53705E-05    3.87107E-05
      44      1.51857E-05    5.58924E-07    4.84250E-06    1.23688E-05    4.02573E-05    3.85662E-06
      45      1.23486E-02    9.07623E-03    6.26984E-06    3.35171E-02    4.68979E-02    1.04639E-02
      46      8.35432E-03    1.17967E-02    1.18097E-06    4.38248E-02    3.09838E-02    6.62409E-05
      47      1.00955E-04    1.03589E-03    1.48118E-09    5.43461E-03    6.72912E-04    4.97888E-04
      48      1.69211E-03    6.23502E-04    4.52965E-06    2.97740E-03    8.33415E-03    5.15176E-05
      49      1.61248E-06    2.31279E-06    1.64883E-05    2.06274E-05    2.10752E-07    3.11500E-04
      50      7.88988E-07    5.20545E-08    1.71124E-05    8.30586E-07    6.96420E-07    4.08984E-03
      51      7.85397E-07    4.60364E-06    2.30848E-02    5.40747E-03    5.31163E-03    1.90338E-07
      52      7.21199E-07    1.99938E-08    7.06123E-05    1.75121E-03    3.02195E-04    8.81394E-09
      53      2.28825E-09    2.12175E-06    7.78372E-05    4.95112E-04    2.73400E-03    1.34184E-06
      54      7.05113E-06    6.18781E-07    5.34270E-05    3.01226E-04    2.78005E-04    1.32050E-09
      55      2.70603E-05    1.96293E-04    3.78020E-03    3.44810E-03    1.97978E-03    6.33144E-06
      56      1.70705E-04    3.83316E-06    1.13678E-02    2.62048E-03    5.70302E-04    4.64892E-05
      57      1.71817E-04    2.08113E-05    5.93306E-03    8.98287E-04    4.27882E-03    9.57123E-05
      58      1.26612E-06    8.78619E-05    7.10409E-08    7.42319E-04    3.63977E-06    3.87992E-05
      59      1.40912E-04    6.98536E-05    3.40979E-05    4.81667E-04    1.23852E-03    3.36899E-04
      60      4.95109E-05    7.59948E-05    4.49037E-05    5.82704E-04    4.49233E-04    1.03882E-05
      61      1.37565E-05    9.88563E-06    1.13190E-03    4.78840E-04    1.17932E-04    2.54380E-06
      62      1.17095E-09    9.83410E-06    1.96975E-05    6.37741E-05    1.26867E-05    1.67365E-06
      63      3.74546E-06    1.42169E-06    3.89559E-03    1.15039E-03    7.70349E-04    1.59467E-07
      64      4.76112E-05    1.76409E-04    4.51720E-04    1.67340E-04    5.23711E-04    1.37418E-04
      65      7.04910E-03    1.33512E-03    3.34330E-05    4.09803E-03    2.42712E-02    3.75970E-03
      66      1.37253E-03    6.60436E-03    5.59283E-06    2.24073E-02    4.83728E-03    4.73039E-04
      67      1.13344E-04    3.48128E-04    1.25957E-06    1.04783E-03    4.13627E-04    1.86017E-04
      68      9.89864E-05    4.13969E-04    1.55947E-06    1.40507E-03    4.17365E-04    1.89290E-04
      69      6.58457E-04    6.00576E-04    4.62069E-06    1.95456E-03    2.20868E-03    1.79361E-07
      70      1.13639E-05    1.10301E-07    2.07779E-04    2.55672E-05    1.26610E-06    2.67505E-05
      71      3.92552E-06    1.72861E-05    6.25277E-04    1.07352E-05    2.84529E-04    9.85429E-04
      72      5.73921E-07    2.81790E-04    1.55581E-05    1.72438E-03    1.60990E-05    1.08265E-05
      73      1.52234E-04    1.97888E-05    4.84296E-03    1.90897E-03    2.74147E-05    1.26328E-04
      74      1.42100E-04    2.63760E-07    8.47912E-03    2.01648E-03    5.51207E-03    7.51834E-06

 TOTAL         2.9012         2.9016         2.8395         3.5645         3.5657         1.9473    


          THE ANALYSIS HAS BEEN COMPLETED



                              ANALYSIS COMPLETE
                              WITH      3 WARNING MESSAGES ON THE DAT FILE
                              AND       1 WARNING MESSAGES ON THE MSG FILE



     JOB TIME SUMMARY
       USER TIME (SEC)      =      1.0    
       SYSTEM TIME (SEC)    =     0.10    
       TOTAL CPU TIME (SEC) =      1.1    
       WALLCLOCK TIME (SEC) =            2
