*Heading
** Job name: Job-1 Model name: Model-1
** Generated by: Abaqus/CAE 2021
*Preprint, echo=NO, model=NO, history=NO, contact=NO
**
** PARTS
**
*Part, name=Part-1
*Node
      1,           1.,           1.,           1.
      2,           1.,           0.,           1.
      3,           1.,           0.,           0.
      4,           1.,           1.,           0.
      5,           0.,           0.,           1.
      6,           0.,           0.,           0.
      7,           0.,           1.,           0.
      8,           0.,           1.,           1.
      9,           1.,  0.899999976,           1.
     10,           1.,  0.800000012,           1.
     11,           1.,  0.699999988,           1.
     12,           1.,  0.600000024,           1.
     13,           1.,          0.5,           1.
     14,           1.,  0.400000006,           1.
     15,           1.,  0.300000012,           1.
     16,           1.,  0.200000003,           1.
     17,           1.,  0.100000001,           1.
     18,           1.,           0.,  0.899999976
     19,           1.,           0.,  0.800000012
     20,           1.,           0.,  0.699999988
** ... 1442 like lines cut
*Element, type=C3D4
   1,  603,  604,  605,  606
   2,  603,  607,  608,  609
   3,  603,  608,  610,  611
   4,  612,  613,  614,  615
   5,  612,  616,  617,  618
   6,  612,  619,  611,  618
   7,  612,  620,  611,  619
   8,  612,  621,  618,  617
   9,  612,  617,  613,  621
  10,  612,  620,  619,  622
  11,  619,  622,  623,  612
  12,  624,  625,  626,  627
  13,  624,  628,  627,  629
  14,  624,  630,  631,  625
  15,  624,  632,  633,  634
  16,  624,  632,  630,  627
  17,  635,  636,  621,  637
  18,  635,  637,  618,  638
  19,  635,  617,  639,  616
  20,  635,  640,  638,  616
** ... 6809 like lines cut
*Nset, nset=Set-1, generate
    1,  1462,     1
*Elset, elset=Set-1, generate
    1,  6829,     1
** Section: Section-1
*Solid Section, elset=Set-1, controls=EC-1, material=Material-1
,
*End Part
**  
**
** ASSEMBLY
**
*Assembly, name=Assembly
**  
*Instance, name=Part-1-1, part=Part-1
*End Instance
**  
*Nset, nset=Set-1, instance=Part-1-1
   1,   2,   5,   8,   9,  10,  11,  12,  13,  14,  15,  16,  17,  45,  46,  47
  48,  49,  50,  51,  52,  53,  90,  91,  92,  93,  94,  95,  96,  97,  98, 108
 109, 110, 111, 112, 113, 114, 115, 116, 441, 442, 443, 444, 445, 446, 447, 448
 449, 450, 451, 452, 453, 454, 455, 456, 457, 458, 459, 460, 461, 462, 463, 464
 465, 466, 467, 468, 469, 470, 471, 472, 473, 474, 475, 476, 477, 478, 479, 480
 481, 482, 483, 484, 485, 486, 487, 488, 489, 490, 491, 492, 493, 494, 495, 496
 497, 498, 499, 500, 501, 502, 503, 504, 505, 506, 507, 508, 509, 510, 511, 512
 513, 514, 515, 516, 517, 518, 519, 520, 521
*Elset, elset=Set-1, instance=Part-1-1
  226,  881, 1151, 1154, 1396, 1546, 1656, 1662, 1712, 1731, 1739, 1751, 1771, 1791, 1796, 1805
 1911, 1943, 1950, 1966, 1972, 2024, 2345, 2350, 2365, 2374, 2397, 2418, 2424, 2431, 2439, 2450
 2473, 2494, 2506, 2535, 2571, 2658, 2694, 2699, 2744, 2949, 3091, 3234, 3270, 3416, 3619, 3628
 3677, 3695, 3709, 3723, 3827, 3832, 3851, 3916, 3939, 3949, 4023, 4132, 4135, 4155, 4172, 4176
 4187, 4220, 4227, 4231, 4246, 4259, 4269, 4274, 4276, 4285, 4292, 4293, 4296, 4310, 4311, 4314
 4319, 4329, 4332, 4338, 4339, 4343, 4358, 4373, 4375, 4379, 4384, 4393, 4395, 4402, 4411, 4423
 4432, 4436, 4442, 4449, 4461, 4467, 4472, 4481, 4486, 4488, 4490, 4493, 4496, 4498, 4502, 4505
 4511, 4512, 4515, 4524, 4525, 4526, 4528, 4542, 4543, 4548, 4559, 4562, 4572, 4573, 4577, 4578
 4581, 4583, 4590, 4595, 4596, 4597, 4605, 4623, 4629, 4631, 4632, 4634, 4636, 4638, 4639, 4645
 4648, 4649, 4654, 4658, 4662, 4670, 4687, 4698, 4700, 4709, 4718, 4725, 4727, 4730, 4737, 4775
 4916, 4926, 5078, 5127, 5128, 5140, 5163, 5194, 5201, 5234, 5241, 5326, 5343, 5381, 5382, 5385
 5482, 5493, 5709, 5797, 5798, 5802, 5816, 5818, 5885, 5886, 5913, 6003, 6053, 6137, 6269, 6334
 6348, 6375, 6439, 6456, 6583, 6602, 6657, 6672
*Nset, nset=Set-2, instance=Part-1-1
   3,   4,   6,   7,  27,  28,  29,  30,  31,  32,  33,  34,  35,  63,  64,  65
  66,  67,  68,  69,  70,  71,  72,  73,  74,  75,  76,  77,  78,  79,  80,  81
  82,  83,  84,  85,  86,  87,  88,  89, 279, 280, 281, 282, 283, 284, 285, 286
 287, 288, 289, 290, 291, 292, 293, 294, 295, 296, 297, 298, 299, 300, 301, 302
 303, 304, 305, 306, 307, 308, 309, 310, 311, 312, 313, 314, 315, 316, 317, 318
 319, 320, 321, 322, 323, 324, 325, 326, 327, 328, 329, 330, 331, 332, 333, 334
 335, 336, 337, 338, 339, 340, 341, 342, 343, 344, 345, 346, 347, 348, 349, 350
 351, 352, 353, 354, 355, 356, 357, 358, 359
*Elset, elset=Set-2, instance=Part-1-1
  261,  374,  375,  587,  682,  924, 1205, 1379, 1429, 1595, 1615, 1618, 1624, 1642, 1647, 1648
 1747, 1829, 1976, 2072, 2086, 2205, 2219, 2230, 2270, 2275, 2284, 2299, 2304, 2306, 2322, 2468
 2550, 2569, 2574, 2654, 2663, 2748, 2773, 2784, 2814, 2826, 2844, 2861, 2875, 2899, 2924, 2974
 2975, 2976, 2983, 2985, 2986, 2988, 2999, 3005, 3018, 3038, 3048, 3057, 3072, 3081, 3090, 3102
 3107, 3128, 3131, 3133, 3144, 3155, 3156, 3167, 3168, 3174, 3178, 3186, 3188, 3190, 3191, 3194
 3203, 3214, 3222, 3225, 3230, 3235, 3238, 3243, 3263, 3268, 3271, 3282, 3286, 3296, 3297, 3304
 3310, 3311, 3330, 3337, 3346, 3368, 3369, 3382, 3383, 3387, 3392, 3410, 3411, 3421, 3437, 3457
 3460, 3468, 3473, 3476, 3481, 3489, 3490, 3491, 3494, 3499, 3509, 3525, 3532, 3538, 3539, 3556
 3559, 3624, 3704, 3717, 3779, 3814, 3817, 3843, 3879, 3883, 3895, 3905, 3918, 3936, 3951, 3987
 4003, 4004, 4031, 4036, 4039, 4044, 4083, 4088, 4112, 4127, 4128, 4133, 4147, 4163, 4215, 4253
 4281, 4399, 4643, 4756, 4807, 4836, 4873, 4928, 4979, 5008, 5054, 5069, 5070, 5082, 5117, 5139
 5161, 5203, 5230, 5252, 5264, 5267, 5274, 5289, 5303, 5307, 5310, 5313, 5333, 5361, 5362, 5366
 5393, 5413, 5427, 5662, 6079, 6245, 6532, 6596
*Nset, nset=Set-3, instance=Part-1-1
   5,   6,   7,   8,  54,  55,  56,  57,  58,  59,  60,  61,  62,  72,  73,  74
  75,  76,  77,  78,  79,  80,  99, 100, 101, 102, 103, 104, 105, 106, 107, 108
 109, 110, 111, 112, 113, 114, 115, 116, 522, 523, 524, 525, 526, 527, 528, 529
 530, 531, 532, 533, 534, 535, 536, 537, 538, 539, 540, 541, 542, 543, 544, 545
 546, 547, 548, 549, 550, 551, 552, 553, 554, 555, 556, 557, 558, 559, 560, 561
 562, 563, 564, 565, 566, 567, 568, 569, 570, 571, 572, 573, 574, 575, 576, 577
 578, 579, 580, 581, 582, 583, 584, 585, 586, 587, 588, 589, 590, 591, 592, 593
 594, 595, 596, 597, 598, 599, 600, 601, 602
*Elset, elset=Set-3, instance=Part-1-1
   21,   62,   77,  321,  345,  358,  400,  405,  585,  663,  935,  984, 1041, 1341, 1372, 1544
 1562, 1604, 1679, 2058, 2460, 2462, 2489, 2516, 2541, 2573, 2584, 2588, 2630, 2686, 2696, 2719
 2720, 2729, 2730, 2732, 2777, 2803, 2804, 2872, 3056, 3083, 3165, 3196, 3197, 3205, 3252, 3343
 3354, 3364, 3394, 3511, 3546, 3549, 3574, 3575, 3600, 3682, 3720, 3741, 3807, 3808, 3813, 3816
 3828, 3866, 3872, 3875, 3885, 3893, 3894, 3989, 4107, 4159, 4173, 4175, 4180, 4197, 4241, 4277
 4286, 4326, 4407, 4415, 4422, 4429, 4435, 4507, 4521, 4607, 4676, 4680, 4710, 4717, 4723, 4724
 4735, 4736, 4741, 4750, 4752, 4770, 4772, 4774, 4789, 4819, 4820, 4827, 4830, 4844, 4852, 4856
 4874, 4878, 4882, 4883, 4888, 4890, 4895, 4897, 4899, 4910, 4915, 4927, 4931, 4935, 4945, 4946
 4948, 4953, 4974, 4982, 4983, 4986, 4988, 4998, 5003, 5014, 5015, 5018, 5019, 5022, 5023, 5025
 5035, 5036, 5039, 5045, 5053, 5058, 5060, 5062, 5068, 5072, 5075, 5076, 5077, 5079, 5080, 5085
 5086, 5092, 5095, 5104, 5106, 5109, 5110, 5111, 5115, 5164, 5166, 5209, 5249, 5257, 5259, 5314
 5321, 5351, 5355, 5422, 5424, 5505, 5557, 5577, 5700, 5928, 5978, 5980, 6005, 6006, 6076, 6081
 6130, 6156, 6172, 6173, 6236, 6238, 6264, 6316
*Nset, nset=Set-4, instance=Part-1-1
   1,   2,   3,   4,   9,  10,  11,  12,  13,  14,  15,  16,  17,  18,  19,  20
  21,  22,  23,  24,  25,  26,  27,  28,  29,  30,  31,  32,  33,  34,  35,  36
  37,  38,  39,  40,  41,  42,  43,  44, 117, 118, 119, 120, 121, 122, 123, 124
 125, 126, 127, 128, 129, 130, 131, 132, 133, 134, 135, 136, 137, 138, 139, 140
 141, 142, 143, 144, 145, 146, 147, 148, 149, 150, 151, 152, 153, 154, 155, 156
 157, 158, 159, 160, 161, 162, 163, 164, 165, 166, 167, 168, 169, 170, 171, 172
 173, 174, 175, 176, 177, 178, 179, 180, 181, 182, 183, 184, 185, 186, 187, 188
 189, 190, 191, 192, 193, 194, 195, 196, 197
*Elset, elset=Set-4, instance=Part-1-1
  183,  338,  417,  427,  489,  614,  633,  813, 1159, 1218, 1361, 1495, 1590, 1631, 1633, 1650
 1693, 1702, 1706, 1714, 1715, 1727, 1730, 1732, 1757, 1758, 1759, 1773, 1792, 1806, 1815, 1820
 1827, 1845, 1848, 1856, 1858, 1863, 1872, 1888, 1901, 1906, 1916, 1917, 1918, 1919, 1924, 1925
 1926, 1942, 1955, 1959, 1960, 1961, 1968, 1969, 1974, 1980, 2002, 2005, 2020, 2025, 2045, 2066
 2084, 2088, 2096, 2098, 2100, 2102, 2109, 2120, 2121, 2122, 2126, 2133, 2136, 2139, 2140, 2144
 2156, 2158, 2159, 2169, 2180, 2183, 2185, 2188, 2191, 2196, 2202, 2238, 2245, 2252, 2256, 2260
 2285, 2309, 2314, 2315, 2327, 2330, 2346, 2354, 2363, 2480, 2488, 2499, 2500, 2561, 2589, 2590
 2602, 2644, 2810, 2818, 2819, 2863, 2980, 2991, 3041, 3052, 3059, 3062, 3109, 3113, 3114, 3120
 3125, 3166, 3212, 3231, 3265, 3287, 3288, 3301, 3344, 3348, 3349, 3357, 3360, 3528, 3535, 3567
 3612, 3613, 3615, 3620, 3621, 3622, 3727, 3729, 3780, 3804, 3823, 3835, 3840, 3846, 3862, 3910
 3928, 3979, 4012, 4034, 4081, 4234, 4391, 4421, 4437, 4455, 4456, 4504, 4547, 4585, 4609, 4641
 4656, 4659, 4668, 4743, 4832, 5183, 5193, 5196, 5198, 5199, 5225, 5284, 5367, 5369, 5516, 5580
 5608, 6138, 6139, 6209, 6341, 6367, 6595, 6609
*Nset, nset=Set-5, instance=Part-1-1
   1,   2,   5,   8,   9,  10,  11,  12,  13,  14,  15,  16,  17,  45,  46,  47
  48,  49,  50,  51,  52,  53,  90,  91,  92,  93,  94,  95,  96,  97,  98, 108
 109, 110, 111, 112, 113, 114, 115, 116, 441, 442, 443, 444, 445, 446, 447, 448
 449, 450, 451, 452, 453, 454, 455, 456, 457, 458, 459, 460, 461, 462, 463, 464
 465, 466, 467, 468, 469, 470, 471, 472, 473, 474, 475, 476, 477, 478, 479, 480
 481, 482, 483, 484, 485, 486, 487, 488, 489, 490, 491, 492, 493, 494, 495, 496
 497, 498, 499, 500, 501, 502, 503, 504, 505, 506, 507, 508, 509, 510, 511, 512
 513, 514, 515, 516, 517, 518, 519, 520, 521
*Elset, elset=Set-5, instance=Part-1-1
  226,  881, 1151, 1154, 1396, 1546, 1656, 1662, 1712, 1731, 1739, 1751, 1771, 1791, 1796, 1805
 1911, 1943, 1950, 1966, 1972, 2024, 2345, 2350, 2365, 2374, 2397, 2418, 2424, 2431, 2439, 2450
 2473, 2494, 2506, 2535, 2571, 2658, 2694, 2699, 2744, 2949, 3091, 3234, 3270, 3416, 3619, 3628
 3677, 3695, 3709, 3723, 3827, 3832, 3851, 3916, 3939, 3949, 4023, 4132, 4135, 4155, 4172, 4176
 4187, 4220, 4227, 4231, 4246, 4259, 4269, 4274, 4276, 4285, 4292, 4293, 4296, 4310, 4311, 4314
 4319, 4329, 4332, 4338, 4339, 4343, 4358, 4373, 4375, 4379, 4384, 4393, 4395, 4402, 4411, 4423
 4432, 4436, 4442, 4449, 4461, 4467, 4472, 4481, 4486, 4488, 4490, 4493, 4496, 4498, 4502, 4505
 4511, 4512, 4515, 4524, 4525, 4526, 4528, 4542, 4543, 4548, 4559, 4562, 4572, 4573, 4577, 4578
 4581, 4583, 4590, 4595, 4596, 4597, 4605, 4623, 4629, 4631, 4632, 4634, 4636, 4638, 4639, 4645
 4648, 4649, 4654, 4658, 4662, 4670, 4687, 4698, 4700, 4709, 4718, 4725, 4727, 4730, 4737, 4775
 4916, 4926, 5078, 5127, 5128, 5140, 5163, 5194, 5201, 5234, 5241, 5326, 5343, 5381, 5382, 5385
 5482, 5493, 5709, 5797, 5798, 5802, 5816, 5818, 5885, 5886, 5913, 6003, 6053, 6137, 6269, 6334
 6348, 6375, 6439, 6456, 6583, 6602, 6657, 6672
*Nset, nset=Set-6, instance=Part-1-1
   3,   4,   6,   7,  27,  28,  29,  30,  31,  32,  33,  34,  35,  63,  64,  65
  66,  67,  68,  69,  70,  71,  72,  73,  74,  75,  76,  77,  78,  79,  80,  81
  82,  83,  84,  85,  86,  87,  88,  89, 279, 280, 281, 282, 283, 284, 285, 286
 287, 288, 289, 290, 291, 292, 293, 294, 295, 296, 297, 298, 299, 300, 301, 302
 303, 304, 305, 306, 307, 308, 309, 310, 311, 312, 313, 314, 315, 316, 317, 318
 319, 320, 321, 322, 323, 324, 325, 326, 327, 328, 329, 330, 331, 332, 333, 334
 335, 336, 337, 338, 339, 340, 341, 342, 343, 344, 345, 346, 347, 348, 349, 350
 351, 352, 353, 354, 355, 356, 357, 358, 359
*Elset, elset=Set-6, instance=Part-1-1
  261,  374,  375,  587,  682,  924, 1205, 1379, 1429, 1595, 1615, 1618, 1624, 1642, 1647, 1648
 1747, 1829, 1976, 2072, 2086, 2205, 2219, 2230, 2270, 2275, 2284, 2299, 2304, 2306, 2322, 2468
 2550, 2569, 2574, 2654, 2663, 2748, 2773, 2784, 2814, 2826, 2844, 2861, 2875, 2899, 2924, 2974
 2975, 2976, 2983, 2985, 2986, 2988, 2999, 3005, 3018, 3038, 3048, 3057, 3072, 3081, 3090, 3102
 3107, 3128, 3131, 3133, 3144, 3155, 3156, 3167, 3168, 3174, 3178, 3186, 3188, 3190, 3191, 3194
 3203, 3214, 3222, 3225, 3230, 3235, 3238, 3243, 3263, 3268, 3271, 3282, 3286, 3296, 3297, 3304
 3310, 3311, 3330, 3337, 3346, 3368, 3369, 3382, 3383, 3387, 3392, 3410, 3411, 3421, 3437, 3457
 3460, 3468, 3473, 3476, 3481, 3489, 3490, 3491, 3494, 3499, 3509, 3525, 3532, 3538, 3539, 3556
 3559, 3624, 3704, 3717, 3779, 3814, 3817, 3843, 3879, 3883, 3895, 3905, 3918, 3936, 3951, 3987
 4003, 4004, 4031, 4036, 4039, 4044, 4083, 4088, 4112, 4127, 4128, 4133, 4147, 4163, 4215, 4253
 4281, 4399, 4643, 4756, 4807, 4836, 4873, 4928, 4979, 5008, 5054, 5069, 5070, 5082, 5117, 5139
 5161, 5203, 5230, 5252, 5264, 5267, 5274, 5289, 5303, 5307, 5310, 5313, 5333, 5361, 5362, 5366
 5393, 5413, 5427, 5662, 6079, 6245, 6532, 6596
*End Assembly
** 
** ELEMENT CONTROLS
** 
*Section Controls, name=EC-1
1., 1., 1., 0., 0.
** 
** MATERIALS
** 
*Material, name=Material-1
*Density
1.,
*Elastic
210., 0.3
*Plastic
 0.24,0.
** ----------------------------------------------------------------
** 
** STEP: Step-1
** 
*Step, name=Step-1, nlgeom=NO
*Dynamic, Explicit, direct user control
0.0005, 0.5
*Bulk Viscosity
0., 0.
** Mass Scaling: Disable Throughout Step
*Variable Mass Scaling
** 
** BOUNDARY CONDITIONS
** 
** Name: BC-1 Type: Displacement/Rotation
*Boundary
Set-5, 1, 1
Set-5, 2, 2
Set-5, 3, 3
Set-5, 4, 4
Set-5, 5, 5
Set-5, 6, 6
** Name: BC-2 Type: Velocity/Angular velocity
*Boundary, type=VELOCITY
Set-6, 3, 3, -1.
** 
** OUTPUT REQUESTS
** 
*Restart, write, number interval=1, time marks=NO
** 
** FIELD OUTPUT: F-Output-1
** 
*Output, field, variable=PRESELECT
** 
** HISTORY OUTPUT: H-Output-1
** 
*Output, history, variable=PRESELECT
*End Step
